data_Pb2ScTaO6-R3-a+a+a+-antiferro
_audit_creation_method         'generated by CrystalMaker 9.1.0'
_cell_length_a                   7.9815(0)
_cell_length_b                   7.9815(0)
_cell_length_c                   7.9815(0)
_cell_angle_alpha               89.4540(0)
_cell_angle_beta                89.4540(0)
_cell_angle_gamma               89.4540(0)
loop_
_symmetry_equiv_pos_site_id
_symmetry_equiv_pos_as_xyz
1 '-x,+y,+z'
2 '+y,+z,+x'
3 '+z,+x,+y'
loop_ 
_atom_site_label
_atom_site_type_symbol
_atom_site_occupancy
_atom_site_fract_x
_atom_site_fract_y
_atom_site_fract_z
O1     O 1.0000      0.2700    0.2300    0.0000
O2     O 1.0000      0.2700    0.7700    0.0000
O3     O 1.0000      0.2700    0.5000    0.2300
O4     O 1.0000      0.0000    0.7300    0.2300
O5     O 1.0000      0.0000    0.7300    0.7700
O6     O 1.0000      0.5000    0.2300    0.7300
O7     O 1.0000      0.2700    0.5000    0.7700
O8     O 1.0000      0.5000    0.7700    0.7300
Pb1    Pb 1.0000      0.0000    0.0000    0.0000
Pb2    Pb 1.0000      0.5000    0.0000    0.0000
Pb3    Pb 1.0000      0.5000    0.5000    0.0000
Pb4    Pb 1.0000      0.5000    0.5000    0.5000
Sc1    Sc 1.0000      0.2600    0.2600    0.2600
Sc2    Sc 1.0000      0.7400    0.2600    0.7400
Ta1    Ta 1.0000      0.2400    0.7600    0.2400
Ta2    Ta 1.0000      0.7600    0.7600    0.7600

